FoamFile
{
    version     2.0;
    format      ascii;
    class       dictionary;
    object      blockMeshDict;
}
// * * * * * * * * * * * * * * * * * * * * * * * * * * * * * * * * * * * * * //

#include	"../0/constants" 

scale	1.0;

NCHR	-1.0;  					// negative of chord
R		 3.0;					// radius
NR		-3.0 ; 					// negative of radius
CL		#calc"-$CHR * 0.1";		// flank offset

MX		#calc"-cos(45 * $PI / 180) * $R";	// arc 'x'
MYP		#calc" sin(45 * $PI / 180) * $R";	// arc positive 'y' 
MYN		#calc"-sin(45 * $PI / 180) * $R";	// arc negative 'y'		

GX		10;									// LE-to-TE grading
GY		50; 								// topwards grading
IGX		#calc"1.0/$GX"; 					// inverse of GX
IGY 	#calc"1.0/$GY"; 					// inverse of GY

vertices
(
	($NCHR	0	-0.5) 	//0
	(0		0	-0.5) 	//1
	($CL	$R	-0.5) 	//2
	($NR	0	-0.5) 	//3
	($CL	$NR	-0.5) 	//4
	($L		$NR	-0.5) 	//5
	($L		$H0	-0.5) 	//6
	($L		$R	-0.5) 	//7
	(0		0	-0.5) 	//8=1

	($NCHR	0	 0.5) 	//9
	(0		0	 0.5) 	//10
	($CL	$R	 0.5) 	//11
	($NR	0	 0.5) 	//12
	($CL	$NR	 0.5) 	//13
	($L		$NR	 0.5) 	//14
	($L		$H0	 0.5) 	//15
	($L		$R	 0.5) 	//16
	(0		0	 0.5) 	//17=10
);

blocks
(
	hex (0 1 2 3 9 10 11 12) (150 50 1) 
	edgeGrading ($GX 0.05 0.2 $GX  $GY $GY $GY $GY  1 1 1 1)

	hex (1 6 7 2 10 15 16 11) (150 50 1) 
	simpleGrading ($GX $GY 1)

	hex (3 4 8 0 12 13 17 9) (150 50 1) 
	edgeGrading (0.05 $GX $GX 0.2  $IGY $IGY $IGY $IGY  1 1 1 1)

	hex (4 5 6 8 13 14 15 17) (150 50 1) 
	simpleGrading ($GX $IGY 1)
);

edges
(
	arc 2 3 	($MX $MYP -0.5)
	arc 3 4 	($MX $MYN -0.5)
	arc 11 12 	($MX $MYP  0.5)
	arc 12 13 	($MX $MYN  0.5)
	spline  0  1
	(
		(-1.0000 0.0000 -0.5000)
		(-0.9999 0.0014 -0.5000)
		(-0.9998 0.0028 -0.5000)
		(-0.9994 0.0042 -0.5000)
		(-0.9990 0.0055 -0.5000)
		(-0.9984 0.0069 -0.5000)
		(-0.9978 0.0083 -0.5000)
		(-0.9970 0.0096 -0.5000)
		(-0.9960 0.0109 -0.5000)
		(-0.9950 0.0123 -0.5000)
		(-0.9938 0.0136 -0.5000)
		(-0.9925 0.0149 -0.5000)
		(-0.9911 0.0162 -0.5000)
		(-0.9895 0.0174 -0.5000)
		(-0.9878 0.0187 -0.5000)
		(-0.9860 0.0199 -0.5000)
		(-0.9841 0.0212 -0.5000)
		(-0.9821 0.0224 -0.5000)
		(-0.9799 0.0236 -0.5000)
		(-0.9777 0.0248 -0.5000)
		(-0.9753 0.0260 -0.5000)
		(-0.9728 0.0272 -0.5000)
		(-0.9701 0.0283 -0.5000)
		(-0.9674 0.0295 -0.5000)
		(-0.9645 0.0306 -0.5000)
		(-0.9616 0.0317 -0.5000)
		(-0.9585 0.0328 -0.5000)
		(-0.9553 0.0339 -0.5000)
		(-0.9519 0.0350 -0.5000)
		(-0.9485 0.0360 -0.5000)
		(-0.9450 0.0370 -0.5000)
		(-0.9413 0.0380 -0.5000)
		(-0.9375 0.0390 -0.5000)
		(-0.9337 0.0400 -0.5000)
		(-0.9297 0.0409 -0.5000)
		(-0.9256 0.0419 -0.5000)
		(-0.9214 0.0428 -0.5000)
		(-0.9171 0.0437 -0.5000)
		(-0.9127 0.0445 -0.5000)
		(-0.9082 0.0454 -0.5000)
		(-0.9036 0.0462 -0.5000)
		(-0.8989 0.0470 -0.5000)
		(-0.8941 0.0478 -0.5000)
		(-0.8892 0.0486 -0.5000)
		(-0.8841 0.0493 -0.5000)
		(-0.8790 0.0500 -0.5000)
		(-0.8739 0.0507 -0.5000)
		(-0.8686 0.0514 -0.5000)
		(-0.8632 0.0520 -0.5000)
		(-0.8577 0.0526 -0.5000)
		(-0.8522 0.0532 -0.5000)
		(-0.8465 0.0538 -0.5000)
		(-0.8408 0.0543 -0.5000)
		(-0.8350 0.0549 -0.5000)
		(-0.8291 0.0554 -0.5000)
		(-0.8231 0.0558 -0.5000)
		(-0.8170 0.0563 -0.5000)
		(-0.8109 0.0567 -0.5000)
		(-0.8046 0.0571 -0.5000)
		(-0.7983 0.0575 -0.5000)
		(-0.7920 0.0578 -0.5000)
		(-0.7855 0.0581 -0.5000)
		(-0.7790 0.0584 -0.5000)
		(-0.7724 0.0587 -0.5000)
		(-0.7658 0.0589 -0.5000)
		(-0.7591 0.0592 -0.5000)
		(-0.7523 0.0593 -0.5000)
		(-0.7454 0.0595 -0.5000)
		(-0.7385 0.0597 -0.5000)
		(-0.7316 0.0598 -0.5000)
		(-0.7245 0.0599 -0.5000)
		(-0.7174 0.0599 -0.5000)
		(-0.7103 0.0600 -0.5000)
		(-0.7031 0.0600 -0.5000)
		(-0.6959 0.0600 -0.5000)
		(-0.6886 0.0600 -0.5000)
		(-0.6813 0.0599 -0.5000)
		(-0.6739 0.0599 -0.5000)
		(-0.6665 0.0598 -0.5000)
		(-0.6590 0.0596 -0.5000)
		(-0.6515 0.0595 -0.5000)
		(-0.6440 0.0593 -0.5000)
		(-0.6364 0.0592 -0.5000)
		(-0.6288 0.0589 -0.5000)
		(-0.6211 0.0587 -0.5000)
		(-0.6135 0.0585 -0.5000)
		(-0.6058 0.0582 -0.5000)
		(-0.5980 0.0579 -0.5000)
		(-0.5903 0.0576 -0.5000)
		(-0.5825 0.0573 -0.5000)
		(-0.5747 0.0570 -0.5000)
		(-0.5669 0.0566 -0.5000)
		(-0.5591 0.0562 -0.5000)
		(-0.5512 0.0558 -0.5000)
		(-0.5434 0.0554 -0.5000)
		(-0.5355 0.0550 -0.5000)
		(-0.5276 0.0545 -0.5000)
		(-0.5197 0.0541 -0.5000)
		(-0.5118 0.0536 -0.5000)
		(-0.5039 0.0531 -0.5000)
		(-0.4961 0.0526 -0.5000)
		(-0.4882 0.0521 -0.5000)
		(-0.4803 0.0516 -0.5000)
		(-0.4724 0.0510 -0.5000)
		(-0.4645 0.0505 -0.5000)
		(-0.4566 0.0499 -0.5000)
		(-0.4488 0.0493 -0.5000)
		(-0.4409 0.0487 -0.5000)
		(-0.4331 0.0481 -0.5000)
		(-0.4253 0.0475 -0.5000)
		(-0.4175 0.0469 -0.5000)
		(-0.4097 0.0463 -0.5000)
		(-0.4020 0.0456 -0.5000)
		(-0.3942 0.0450 -0.5000)
		(-0.3865 0.0443 -0.5000)
		(-0.3789 0.0437 -0.5000)
		(-0.3712 0.0430 -0.5000)
		(-0.3636 0.0423 -0.5000)
		(-0.3560 0.0416 -0.5000)
		(-0.3485 0.0410 -0.5000)
		(-0.3410 0.0403 -0.5000)
		(-0.3335 0.0396 -0.5000)
		(-0.3261 0.0389 -0.5000)
		(-0.3187 0.0382 -0.5000)
		(-0.3114 0.0375 -0.5000)
		(-0.3041 0.0367 -0.5000)
		(-0.2969 0.0360 -0.5000)
		(-0.2897 0.0353 -0.5000)
		(-0.2826 0.0346 -0.5000)
		(-0.2755 0.0339 -0.5000)
		(-0.2684 0.0331 -0.5000)
		(-0.2615 0.0324 -0.5000)
		(-0.2546 0.0317 -0.5000)
		(-0.2477 0.0310 -0.5000)
		(-0.2409 0.0302 -0.5000)
		(-0.2342 0.0295 -0.5000)
		(-0.2276 0.0288 -0.5000)
		(-0.2210 0.0281 -0.5000)
		(-0.2145 0.0273 -0.5000)
		(-0.2080 0.0266 -0.5000)
		(-0.2017 0.0259 -0.5000)
		(-0.1954 0.0252 -0.5000)
		(-0.1891 0.0245 -0.5000)
		(-0.1830 0.0238 -0.5000)
		(-0.1769 0.0231 -0.5000)
		(-0.1709 0.0224 -0.5000)
		(-0.1650 0.0217 -0.5000)
		(-0.1592 0.0210 -0.5000)
		(-0.1535 0.0203 -0.5000)
		(-0.1478 0.0196 -0.5000)
		(-0.1423 0.0189 -0.5000)
		(-0.1368 0.0183 -0.5000)
		(-0.1314 0.0176 -0.5000)
		(-0.1261 0.0169 -0.5000)
		(-0.1210 0.0163 -0.5000)
		(-0.1159 0.0157 -0.5000)
		(-0.1108 0.0150 -0.5000)
		(-0.1059 0.0144 -0.5000)
		(-0.1011 0.0138 -0.5000)
		(-0.0964 0.0132 -0.5000)
		(-0.0918 0.0126 -0.5000)
		(-0.0873 0.0120 -0.5000)
		(-0.0829 0.0114 -0.5000)
		(-0.0786 0.0109 -0.5000)
		(-0.0744 0.0103 -0.5000)
		(-0.0703 0.0098 -0.5000)
		(-0.0663 0.0092 -0.5000)
		(-0.0625 0.0087 -0.5000)
		(-0.0587 0.0082 -0.5000)
		(-0.0550 0.0077 -0.5000)
		(-0.0515 0.0072 -0.5000)
		(-0.0481 0.0068 -0.5000)
		(-0.0447 0.0063 -0.5000)
		(-0.0415 0.0059 -0.5000)
		(-0.0384 0.0055 -0.5000)
		(-0.0355 0.0050 -0.5000)
		(-0.0326 0.0046 -0.5000)
		(-0.0299 0.0043 -0.5000)
		(-0.0272 0.0039 -0.5000)
		(-0.0247 0.0035 -0.5000)
		(-0.0223 0.0032 -0.5000)
		(-0.0201 0.0029 -0.5000)
		(-0.0179 0.0026 -0.5000)
		(-0.0159 0.0023 -0.5000)
		(-0.0140 0.0020 -0.5000)
		(-0.0122 0.0018 -0.5000)
		(-0.0105 0.0015 -0.5000)
		(-0.0089 0.0013 -0.5000)
		(-0.0075 0.0011 -0.5000)
		(-0.0062 0.0009 -0.5000)
		(-0.0050 0.0007 -0.5000)
		(-0.0040 0.0006 -0.5000)
		(-0.0030 0.0004 -0.5000)
		(-0.0022 0.0003 -0.5000)
		(-0.0016 0.0002 -0.5000)
		(-0.0010 0.0001 -0.5000)
		(-0.0006 0.0001 -0.5000)
		(-0.0002 0.0000 -0.5000)
		(-0.0001 0.0000 -0.5000)
		(0.0000 -0.0000 -0.5000)
	)

	spline  9 10
	(
		(-1.0000 0.0000 0.5000)
		(-0.9999 0.0014 0.5000)
		(-0.9998 0.0028 0.5000)
		(-0.9994 0.0042 0.5000)
		(-0.9990 0.0055 0.5000)
		(-0.9984 0.0069 0.5000)
		(-0.9978 0.0083 0.5000)
		(-0.9970 0.0096 0.5000)
		(-0.9960 0.0109 0.5000)
		(-0.9950 0.0123 0.5000)
		(-0.9938 0.0136 0.5000)
		(-0.9925 0.0149 0.5000)
		(-0.9911 0.0162 0.5000)
		(-0.9895 0.0174 0.5000)
		(-0.9878 0.0187 0.5000)
		(-0.9860 0.0199 0.5000)
		(-0.9841 0.0212 0.5000)
		(-0.9821 0.0224 0.5000)
		(-0.9799 0.0236 0.5000)
		(-0.9777 0.0248 0.5000)
		(-0.9753 0.0260 0.5000)
		(-0.9728 0.0272 0.5000)
		(-0.9701 0.0283 0.5000)
		(-0.9674 0.0295 0.5000)
		(-0.9645 0.0306 0.5000)
		(-0.9616 0.0317 0.5000)
		(-0.9585 0.0328 0.5000)
		(-0.9553 0.0339 0.5000)
		(-0.9519 0.0350 0.5000)
		(-0.9485 0.0360 0.5000)
		(-0.9450 0.0370 0.5000)
		(-0.9413 0.0380 0.5000)
		(-0.9375 0.0390 0.5000)
		(-0.9337 0.0400 0.5000)
		(-0.9297 0.0409 0.5000)
		(-0.9256 0.0419 0.5000)
		(-0.9214 0.0428 0.5000)
		(-0.9171 0.0437 0.5000)
		(-0.9127 0.0445 0.5000)
		(-0.9082 0.0454 0.5000)
		(-0.9036 0.0462 0.5000)
		(-0.8989 0.0470 0.5000)
		(-0.8941 0.0478 0.5000)
		(-0.8892 0.0486 0.5000)
		(-0.8841 0.0493 0.5000)
		(-0.8790 0.0500 0.5000)
		(-0.8739 0.0507 0.5000)
		(-0.8686 0.0514 0.5000)
		(-0.8632 0.0520 0.5000)
		(-0.8577 0.0526 0.5000)
		(-0.8522 0.0532 0.5000)
		(-0.8465 0.0538 0.5000)
		(-0.8408 0.0543 0.5000)
		(-0.8350 0.0549 0.5000)
		(-0.8291 0.0554 0.5000)
		(-0.8231 0.0558 0.5000)
		(-0.8170 0.0563 0.5000)
		(-0.8109 0.0567 0.5000)
		(-0.8046 0.0571 0.5000)
		(-0.7983 0.0575 0.5000)
		(-0.7920 0.0578 0.5000)
		(-0.7855 0.0581 0.5000)
		(-0.7790 0.0584 0.5000)
		(-0.7724 0.0587 0.5000)
		(-0.7658 0.0589 0.5000)
		(-0.7591 0.0592 0.5000)
		(-0.7523 0.0593 0.5000)
		(-0.7454 0.0595 0.5000)
		(-0.7385 0.0597 0.5000)
		(-0.7316 0.0598 0.5000)
		(-0.7245 0.0599 0.5000)
		(-0.7174 0.0599 0.5000)
		(-0.7103 0.0600 0.5000)
		(-0.7031 0.0600 0.5000)
		(-0.6959 0.0600 0.5000)
		(-0.6886 0.0600 0.5000)
		(-0.6813 0.0599 0.5000)
		(-0.6739 0.0599 0.5000)
		(-0.6665 0.0598 0.5000)
		(-0.6590 0.0596 0.5000)
		(-0.6515 0.0595 0.5000)
		(-0.6440 0.0593 0.5000)
		(-0.6364 0.0592 0.5000)
		(-0.6288 0.0589 0.5000)
		(-0.6211 0.0587 0.5000)
		(-0.6135 0.0585 0.5000)
		(-0.6058 0.0582 0.5000)
		(-0.5980 0.0579 0.5000)
		(-0.5903 0.0576 0.5000)
		(-0.5825 0.0573 0.5000)
		(-0.5747 0.0570 0.5000)
		(-0.5669 0.0566 0.5000)
		(-0.5591 0.0562 0.5000)
		(-0.5512 0.0558 0.5000)
		(-0.5434 0.0554 0.5000)
		(-0.5355 0.0550 0.5000)
		(-0.5276 0.0545 0.5000)
		(-0.5197 0.0541 0.5000)
		(-0.5118 0.0536 0.5000)
		(-0.5039 0.0531 0.5000)
		(-0.4961 0.0526 0.5000)
		(-0.4882 0.0521 0.5000)
		(-0.4803 0.0516 0.5000)
		(-0.4724 0.0510 0.5000)
		(-0.4645 0.0505 0.5000)
		(-0.4566 0.0499 0.5000)
		(-0.4488 0.0493 0.5000)
		(-0.4409 0.0487 0.5000)
		(-0.4331 0.0481 0.5000)
		(-0.4253 0.0475 0.5000)
		(-0.4175 0.0469 0.5000)
		(-0.4097 0.0463 0.5000)
		(-0.4020 0.0456 0.5000)
		(-0.3942 0.0450 0.5000)
		(-0.3865 0.0443 0.5000)
		(-0.3789 0.0437 0.5000)
		(-0.3712 0.0430 0.5000)
		(-0.3636 0.0423 0.5000)
		(-0.3560 0.0416 0.5000)
		(-0.3485 0.0410 0.5000)
		(-0.3410 0.0403 0.5000)
		(-0.3335 0.0396 0.5000)
		(-0.3261 0.0389 0.5000)
		(-0.3187 0.0382 0.5000)
		(-0.3114 0.0375 0.5000)
		(-0.3041 0.0367 0.5000)
		(-0.2969 0.0360 0.5000)
		(-0.2897 0.0353 0.5000)
		(-0.2826 0.0346 0.5000)
		(-0.2755 0.0339 0.5000)
		(-0.2684 0.0331 0.5000)
		(-0.2615 0.0324 0.5000)
		(-0.2546 0.0317 0.5000)
		(-0.2477 0.0310 0.5000)
		(-0.2409 0.0302 0.5000)
		(-0.2342 0.0295 0.5000)
		(-0.2276 0.0288 0.5000)
		(-0.2210 0.0281 0.5000)
		(-0.2145 0.0273 0.5000)
		(-0.2080 0.0266 0.5000)
		(-0.2017 0.0259 0.5000)
		(-0.1954 0.0252 0.5000)
		(-0.1891 0.0245 0.5000)
		(-0.1830 0.0238 0.5000)
		(-0.1769 0.0231 0.5000)
		(-0.1709 0.0224 0.5000)
		(-0.1650 0.0217 0.5000)
		(-0.1592 0.0210 0.5000)
		(-0.1535 0.0203 0.5000)
		(-0.1478 0.0196 0.5000)
		(-0.1423 0.0189 0.5000)
		(-0.1368 0.0183 0.5000)
		(-0.1314 0.0176 0.5000)
		(-0.1261 0.0169 0.5000)
		(-0.1210 0.0163 0.5000)
		(-0.1159 0.0157 0.5000)
		(-0.1108 0.0150 0.5000)
		(-0.1059 0.0144 0.5000)
		(-0.1011 0.0138 0.5000)
		(-0.0964 0.0132 0.5000)
		(-0.0918 0.0126 0.5000)
		(-0.0873 0.0120 0.5000)
		(-0.0829 0.0114 0.5000)
		(-0.0786 0.0109 0.5000)
		(-0.0744 0.0103 0.5000)
		(-0.0703 0.0098 0.5000)
		(-0.0663 0.0092 0.5000)
		(-0.0625 0.0087 0.5000)
		(-0.0587 0.0082 0.5000)
		(-0.0550 0.0077 0.5000)
		(-0.0515 0.0072 0.5000)
		(-0.0481 0.0068 0.5000)
		(-0.0447 0.0063 0.5000)
		(-0.0415 0.0059 0.5000)
		(-0.0384 0.0055 0.5000)
		(-0.0355 0.0050 0.5000)
		(-0.0326 0.0046 0.5000)
		(-0.0299 0.0043 0.5000)
		(-0.0272 0.0039 0.5000)
		(-0.0247 0.0035 0.5000)
		(-0.0223 0.0032 0.5000)
		(-0.0201 0.0029 0.5000)
		(-0.0179 0.0026 0.5000)
		(-0.0159 0.0023 0.5000)
		(-0.0140 0.0020 0.5000)
		(-0.0122 0.0018 0.5000)
		(-0.0105 0.0015 0.5000)
		(-0.0089 0.0013 0.5000)
		(-0.0075 0.0011 0.5000)
		(-0.0062 0.0009 0.5000)
		(-0.0050 0.0007 0.5000)
		(-0.0040 0.0006 0.5000)
		(-0.0030 0.0004 0.5000)
		(-0.0022 0.0003 0.5000)
		(-0.0016 0.0002 0.5000)
		(-0.0010 0.0001 0.5000)
		(-0.0006 0.0001 0.5000)
		(-0.0002 0.0000 0.5000)
		(-0.0001 0.0000 0.5000)
		(0.0000 -0.0000 0.5000)
	)

	spline  0  8
	(
		(-1.0000 0.0000 -0.5000)
		(-0.9999 -0.0014 -0.5000)
		(-0.9998 -0.0028 -0.5000)
		(-0.9994 -0.0042 -0.5000)
		(-0.9990 -0.0055 -0.5000)
		(-0.9984 -0.0069 -0.5000)
		(-0.9978 -0.0083 -0.5000)
		(-0.9970 -0.0096 -0.5000)
		(-0.9960 -0.0109 -0.5000)
		(-0.9950 -0.0123 -0.5000)
		(-0.9938 -0.0136 -0.5000)
		(-0.9925 -0.0149 -0.5000)
		(-0.9911 -0.0162 -0.5000)
		(-0.9895 -0.0174 -0.5000)
		(-0.9878 -0.0187 -0.5000)
		(-0.9860 -0.0199 -0.5000)
		(-0.9841 -0.0212 -0.5000)
		(-0.9821 -0.0224 -0.5000)
		(-0.9799 -0.0236 -0.5000)
		(-0.9777 -0.0248 -0.5000)
		(-0.9753 -0.0260 -0.5000)
		(-0.9728 -0.0272 -0.5000)
		(-0.9701 -0.0283 -0.5000)
		(-0.9674 -0.0295 -0.5000)
		(-0.9645 -0.0306 -0.5000)
		(-0.9616 -0.0317 -0.5000)
		(-0.9585 -0.0328 -0.5000)
		(-0.9553 -0.0339 -0.5000)
		(-0.9519 -0.0350 -0.5000)
		(-0.9485 -0.0360 -0.5000)
		(-0.9450 -0.0370 -0.5000)
		(-0.9413 -0.0380 -0.5000)
		(-0.9375 -0.0390 -0.5000)
		(-0.9337 -0.0400 -0.5000)
		(-0.9297 -0.0409 -0.5000)
		(-0.9256 -0.0419 -0.5000)
		(-0.9214 -0.0428 -0.5000)
		(-0.9171 -0.0437 -0.5000)
		(-0.9127 -0.0445 -0.5000)
		(-0.9082 -0.0454 -0.5000)
		(-0.9036 -0.0462 -0.5000)
		(-0.8989 -0.0470 -0.5000)
		(-0.8941 -0.0478 -0.5000)
		(-0.8892 -0.0486 -0.5000)
		(-0.8841 -0.0493 -0.5000)
		(-0.8790 -0.0500 -0.5000)
		(-0.8739 -0.0507 -0.5000)
		(-0.8686 -0.0514 -0.5000)
		(-0.8632 -0.0520 -0.5000)
		(-0.8577 -0.0526 -0.5000)
		(-0.8522 -0.0532 -0.5000)
		(-0.8465 -0.0538 -0.5000)
		(-0.8408 -0.0543 -0.5000)
		(-0.8350 -0.0549 -0.5000)
		(-0.8291 -0.0554 -0.5000)
		(-0.8231 -0.0558 -0.5000)
		(-0.8170 -0.0563 -0.5000)
		(-0.8109 -0.0567 -0.5000)
		(-0.8046 -0.0571 -0.5000)
		(-0.7983 -0.0575 -0.5000)
		(-0.7920 -0.0578 -0.5000)
		(-0.7855 -0.0581 -0.5000)
		(-0.7790 -0.0584 -0.5000)
		(-0.7724 -0.0587 -0.5000)
		(-0.7658 -0.0589 -0.5000)
		(-0.7591 -0.0592 -0.5000)
		(-0.7523 -0.0593 -0.5000)
		(-0.7454 -0.0595 -0.5000)
		(-0.7385 -0.0597 -0.5000)
		(-0.7316 -0.0598 -0.5000)
		(-0.7245 -0.0599 -0.5000)
		(-0.7174 -0.0599 -0.5000)
		(-0.7103 -0.0600 -0.5000)
		(-0.7031 -0.0600 -0.5000)
		(-0.6959 -0.0600 -0.5000)
		(-0.6886 -0.0600 -0.5000)
		(-0.6813 -0.0599 -0.5000)
		(-0.6739 -0.0599 -0.5000)
		(-0.6665 -0.0598 -0.5000)
		(-0.6590 -0.0596 -0.5000)
		(-0.6515 -0.0595 -0.5000)
		(-0.6440 -0.0593 -0.5000)
		(-0.6364 -0.0592 -0.5000)
		(-0.6288 -0.0589 -0.5000)
		(-0.6211 -0.0587 -0.5000)
		(-0.6135 -0.0585 -0.5000)
		(-0.6058 -0.0582 -0.5000)
		(-0.5980 -0.0579 -0.5000)
		(-0.5903 -0.0576 -0.5000)
		(-0.5825 -0.0573 -0.5000)
		(-0.5747 -0.0570 -0.5000)
		(-0.5669 -0.0566 -0.5000)
		(-0.5591 -0.0562 -0.5000)
		(-0.5512 -0.0558 -0.5000)
		(-0.5434 -0.0554 -0.5000)
		(-0.5355 -0.0550 -0.5000)
		(-0.5276 -0.0545 -0.5000)
		(-0.5197 -0.0541 -0.5000)
		(-0.5118 -0.0536 -0.5000)
		(-0.5039 -0.0531 -0.5000)
		(-0.4961 -0.0526 -0.5000)
		(-0.4882 -0.0521 -0.5000)
		(-0.4803 -0.0516 -0.5000)
		(-0.4724 -0.0510 -0.5000)
		(-0.4645 -0.0505 -0.5000)
		(-0.4566 -0.0499 -0.5000)
		(-0.4488 -0.0493 -0.5000)
		(-0.4409 -0.0487 -0.5000)
		(-0.4331 -0.0481 -0.5000)
		(-0.4253 -0.0475 -0.5000)
		(-0.4175 -0.0469 -0.5000)
		(-0.4097 -0.0463 -0.5000)
		(-0.4020 -0.0456 -0.5000)
		(-0.3942 -0.0450 -0.5000)
		(-0.3865 -0.0443 -0.5000)
		(-0.3789 -0.0437 -0.5000)
		(-0.3712 -0.0430 -0.5000)
		(-0.3636 -0.0423 -0.5000)
		(-0.3560 -0.0416 -0.5000)
		(-0.3485 -0.0410 -0.5000)
		(-0.3410 -0.0403 -0.5000)
		(-0.3335 -0.0396 -0.5000)
		(-0.3261 -0.0389 -0.5000)
		(-0.3187 -0.0382 -0.5000)
		(-0.3114 -0.0375 -0.5000)
		(-0.3041 -0.0367 -0.5000)
		(-0.2969 -0.0360 -0.5000)
		(-0.2897 -0.0353 -0.5000)
		(-0.2826 -0.0346 -0.5000)
		(-0.2755 -0.0339 -0.5000)
		(-0.2684 -0.0331 -0.5000)
		(-0.2615 -0.0324 -0.5000)
		(-0.2546 -0.0317 -0.5000)
		(-0.2477 -0.0310 -0.5000)
		(-0.2409 -0.0302 -0.5000)
		(-0.2342 -0.0295 -0.5000)
		(-0.2276 -0.0288 -0.5000)
		(-0.2210 -0.0281 -0.5000)
		(-0.2145 -0.0273 -0.5000)
		(-0.2080 -0.0266 -0.5000)
		(-0.2017 -0.0259 -0.5000)
		(-0.1954 -0.0252 -0.5000)
		(-0.1891 -0.0245 -0.5000)
		(-0.1830 -0.0238 -0.5000)
		(-0.1769 -0.0231 -0.5000)
		(-0.1709 -0.0224 -0.5000)
		(-0.1650 -0.0217 -0.5000)
		(-0.1592 -0.0210 -0.5000)
		(-0.1535 -0.0203 -0.5000)
		(-0.1478 -0.0196 -0.5000)
		(-0.1423 -0.0189 -0.5000)
		(-0.1368 -0.0183 -0.5000)
		(-0.1314 -0.0176 -0.5000)
		(-0.1261 -0.0169 -0.5000)
		(-0.1210 -0.0163 -0.5000)
		(-0.1159 -0.0157 -0.5000)
		(-0.1108 -0.0150 -0.5000)
		(-0.1059 -0.0144 -0.5000)
		(-0.1011 -0.0138 -0.5000)
		(-0.0964 -0.0132 -0.5000)
		(-0.0918 -0.0126 -0.5000)
		(-0.0873 -0.0120 -0.5000)
		(-0.0829 -0.0114 -0.5000)
		(-0.0786 -0.0109 -0.5000)
		(-0.0744 -0.0103 -0.5000)
		(-0.0703 -0.0098 -0.5000)
		(-0.0663 -0.0092 -0.5000)
		(-0.0625 -0.0087 -0.5000)
		(-0.0587 -0.0082 -0.5000)
		(-0.0550 -0.0077 -0.5000)
		(-0.0515 -0.0072 -0.5000)
		(-0.0481 -0.0068 -0.5000)
		(-0.0447 -0.0063 -0.5000)
		(-0.0415 -0.0059 -0.5000)
		(-0.0384 -0.0055 -0.5000)
		(-0.0355 -0.0050 -0.5000)
		(-0.0326 -0.0046 -0.5000)
		(-0.0299 -0.0043 -0.5000)
		(-0.0272 -0.0039 -0.5000)
		(-0.0247 -0.0035 -0.5000)
		(-0.0223 -0.0032 -0.5000)
		(-0.0201 -0.0029 -0.5000)
		(-0.0179 -0.0026 -0.5000)
		(-0.0159 -0.0023 -0.5000)
		(-0.0140 -0.0020 -0.5000)
		(-0.0122 -0.0018 -0.5000)
		(-0.0105 -0.0015 -0.5000)
		(-0.0089 -0.0013 -0.5000)
		(-0.0075 -0.0011 -0.5000)
		(-0.0062 -0.0009 -0.5000)
		(-0.0050 -0.0007 -0.5000)
		(-0.0040 -0.0006 -0.5000)
		(-0.0030 -0.0004 -0.5000)
		(-0.0022 -0.0003 -0.5000)
		(-0.0016 -0.0002 -0.5000)
		(-0.0010 -0.0001 -0.5000)
		(-0.0006 -0.0001 -0.5000)
		(-0.0002 -0.0000 -0.5000)
		(-0.0001 -0.0000 -0.5000)
		(0.0000 0.0000 -0.5000)
	)

	spline  9 17
	(
		(-1.0000 0.0000 0.5000)
		(-0.9999 -0.0014 0.5000)
		(-0.9998 -0.0028 0.5000)
		(-0.9994 -0.0042 0.5000)
		(-0.9990 -0.0055 0.5000)
		(-0.9984 -0.0069 0.5000)
		(-0.9978 -0.0083 0.5000)
		(-0.9970 -0.0096 0.5000)
		(-0.9960 -0.0109 0.5000)
		(-0.9950 -0.0123 0.5000)
		(-0.9938 -0.0136 0.5000)
		(-0.9925 -0.0149 0.5000)
		(-0.9911 -0.0162 0.5000)
		(-0.9895 -0.0174 0.5000)
		(-0.9878 -0.0187 0.5000)
		(-0.9860 -0.0199 0.5000)
		(-0.9841 -0.0212 0.5000)
		(-0.9821 -0.0224 0.5000)
		(-0.9799 -0.0236 0.5000)
		(-0.9777 -0.0248 0.5000)
		(-0.9753 -0.0260 0.5000)
		(-0.9728 -0.0272 0.5000)
		(-0.9701 -0.0283 0.5000)
		(-0.9674 -0.0295 0.5000)
		(-0.9645 -0.0306 0.5000)
		(-0.9616 -0.0317 0.5000)
		(-0.9585 -0.0328 0.5000)
		(-0.9553 -0.0339 0.5000)
		(-0.9519 -0.0350 0.5000)
		(-0.9485 -0.0360 0.5000)
		(-0.9450 -0.0370 0.5000)
		(-0.9413 -0.0380 0.5000)
		(-0.9375 -0.0390 0.5000)
		(-0.9337 -0.0400 0.5000)
		(-0.9297 -0.0409 0.5000)
		(-0.9256 -0.0419 0.5000)
		(-0.9214 -0.0428 0.5000)
		(-0.9171 -0.0437 0.5000)
		(-0.9127 -0.0445 0.5000)
		(-0.9082 -0.0454 0.5000)
		(-0.9036 -0.0462 0.5000)
		(-0.8989 -0.0470 0.5000)
		(-0.8941 -0.0478 0.5000)
		(-0.8892 -0.0486 0.5000)
		(-0.8841 -0.0493 0.5000)
		(-0.8790 -0.0500 0.5000)
		(-0.8739 -0.0507 0.5000)
		(-0.8686 -0.0514 0.5000)
		(-0.8632 -0.0520 0.5000)
		(-0.8577 -0.0526 0.5000)
		(-0.8522 -0.0532 0.5000)
		(-0.8465 -0.0538 0.5000)
		(-0.8408 -0.0543 0.5000)
		(-0.8350 -0.0549 0.5000)
		(-0.8291 -0.0554 0.5000)
		(-0.8231 -0.0558 0.5000)
		(-0.8170 -0.0563 0.5000)
		(-0.8109 -0.0567 0.5000)
		(-0.8046 -0.0571 0.5000)
		(-0.7983 -0.0575 0.5000)
		(-0.7920 -0.0578 0.5000)
		(-0.7855 -0.0581 0.5000)
		(-0.7790 -0.0584 0.5000)
		(-0.7724 -0.0587 0.5000)
		(-0.7658 -0.0589 0.5000)
		(-0.7591 -0.0592 0.5000)
		(-0.7523 -0.0593 0.5000)
		(-0.7454 -0.0595 0.5000)
		(-0.7385 -0.0597 0.5000)
		(-0.7316 -0.0598 0.5000)
		(-0.7245 -0.0599 0.5000)
		(-0.7174 -0.0599 0.5000)
		(-0.7103 -0.0600 0.5000)
		(-0.7031 -0.0600 0.5000)
		(-0.6959 -0.0600 0.5000)
		(-0.6886 -0.0600 0.5000)
		(-0.6813 -0.0599 0.5000)
		(-0.6739 -0.0599 0.5000)
		(-0.6665 -0.0598 0.5000)
		(-0.6590 -0.0596 0.5000)
		(-0.6515 -0.0595 0.5000)
		(-0.6440 -0.0593 0.5000)
		(-0.6364 -0.0592 0.5000)
		(-0.6288 -0.0589 0.5000)
		(-0.6211 -0.0587 0.5000)
		(-0.6135 -0.0585 0.5000)
		(-0.6058 -0.0582 0.5000)
		(-0.5980 -0.0579 0.5000)
		(-0.5903 -0.0576 0.5000)
		(-0.5825 -0.0573 0.5000)
		(-0.5747 -0.0570 0.5000)
		(-0.5669 -0.0566 0.5000)
		(-0.5591 -0.0562 0.5000)
		(-0.5512 -0.0558 0.5000)
		(-0.5434 -0.0554 0.5000)
		(-0.5355 -0.0550 0.5000)
		(-0.5276 -0.0545 0.5000)
		(-0.5197 -0.0541 0.5000)
		(-0.5118 -0.0536 0.5000)
		(-0.5039 -0.0531 0.5000)
		(-0.4961 -0.0526 0.5000)
		(-0.4882 -0.0521 0.5000)
		(-0.4803 -0.0516 0.5000)
		(-0.4724 -0.0510 0.5000)
		(-0.4645 -0.0505 0.5000)
		(-0.4566 -0.0499 0.5000)
		(-0.4488 -0.0493 0.5000)
		(-0.4409 -0.0487 0.5000)
		(-0.4331 -0.0481 0.5000)
		(-0.4253 -0.0475 0.5000)
		(-0.4175 -0.0469 0.5000)
		(-0.4097 -0.0463 0.5000)
		(-0.4020 -0.0456 0.5000)
		(-0.3942 -0.0450 0.5000)
		(-0.3865 -0.0443 0.5000)
		(-0.3789 -0.0437 0.5000)
		(-0.3712 -0.0430 0.5000)
		(-0.3636 -0.0423 0.5000)
		(-0.3560 -0.0416 0.5000)
		(-0.3485 -0.0410 0.5000)
		(-0.3410 -0.0403 0.5000)
		(-0.3335 -0.0396 0.5000)
		(-0.3261 -0.0389 0.5000)
		(-0.3187 -0.0382 0.5000)
		(-0.3114 -0.0375 0.5000)
		(-0.3041 -0.0367 0.5000)
		(-0.2969 -0.0360 0.5000)
		(-0.2897 -0.0353 0.5000)
		(-0.2826 -0.0346 0.5000)
		(-0.2755 -0.0339 0.5000)
		(-0.2684 -0.0331 0.5000)
		(-0.2615 -0.0324 0.5000)
		(-0.2546 -0.0317 0.5000)
		(-0.2477 -0.0310 0.5000)
		(-0.2409 -0.0302 0.5000)
		(-0.2342 -0.0295 0.5000)
		(-0.2276 -0.0288 0.5000)
		(-0.2210 -0.0281 0.5000)
		(-0.2145 -0.0273 0.5000)
		(-0.2080 -0.0266 0.5000)
		(-0.2017 -0.0259 0.5000)
		(-0.1954 -0.0252 0.5000)
		(-0.1891 -0.0245 0.5000)
		(-0.1830 -0.0238 0.5000)
		(-0.1769 -0.0231 0.5000)
		(-0.1709 -0.0224 0.5000)
		(-0.1650 -0.0217 0.5000)
		(-0.1592 -0.0210 0.5000)
		(-0.1535 -0.0203 0.5000)
		(-0.1478 -0.0196 0.5000)
		(-0.1423 -0.0189 0.5000)
		(-0.1368 -0.0183 0.5000)
		(-0.1314 -0.0176 0.5000)
		(-0.1261 -0.0169 0.5000)
		(-0.1210 -0.0163 0.5000)
		(-0.1159 -0.0157 0.5000)
		(-0.1108 -0.0150 0.5000)
		(-0.1059 -0.0144 0.5000)
		(-0.1011 -0.0138 0.5000)
		(-0.0964 -0.0132 0.5000)
		(-0.0918 -0.0126 0.5000)
		(-0.0873 -0.0120 0.5000)
		(-0.0829 -0.0114 0.5000)
		(-0.0786 -0.0109 0.5000)
		(-0.0744 -0.0103 0.5000)
		(-0.0703 -0.0098 0.5000)
		(-0.0663 -0.0092 0.5000)
		(-0.0625 -0.0087 0.5000)
		(-0.0587 -0.0082 0.5000)
		(-0.0550 -0.0077 0.5000)
		(-0.0515 -0.0072 0.5000)
		(-0.0481 -0.0068 0.5000)
		(-0.0447 -0.0063 0.5000)
		(-0.0415 -0.0059 0.5000)
		(-0.0384 -0.0055 0.5000)
		(-0.0355 -0.0050 0.5000)
		(-0.0326 -0.0046 0.5000)
		(-0.0299 -0.0043 0.5000)
		(-0.0272 -0.0039 0.5000)
		(-0.0247 -0.0035 0.5000)
		(-0.0223 -0.0032 0.5000)
		(-0.0201 -0.0029 0.5000)
		(-0.0179 -0.0026 0.5000)
		(-0.0159 -0.0023 0.5000)
		(-0.0140 -0.0020 0.5000)
		(-0.0122 -0.0018 0.5000)
		(-0.0105 -0.0015 0.5000)
		(-0.0089 -0.0013 0.5000)
		(-0.0075 -0.0011 0.5000)
		(-0.0062 -0.0009 0.5000)
		(-0.0050 -0.0007 0.5000)
		(-0.0040 -0.0006 0.5000)
		(-0.0030 -0.0004 0.5000)
		(-0.0022 -0.0003 0.5000)
		(-0.0016 -0.0002 0.5000)
		(-0.0010 -0.0001 0.5000)
		(-0.0006 -0.0001 0.5000)
		(-0.0002 -0.0000 0.5000)
		(-0.0001 -0.0000 0.5000)
		(0.0000 0.0000 0.5000)
	)

);

faces																
(																
																
);																
																
faces																
(																
																
);

defaultPatch
{
    name frontAndBack;
    type empty;
}

boundary
(
    inlet
    {
        type patch;
        faces
        (
		(7 2 11 16)
		(2 3 12 11)
		(3 4 13 12)
		(4 5 14 13)
	);
    }

    outlet
    {
        type patch;
	faces
	(
		(6 7 16 15)
		(5 6 15 14)
	);
    }

    naca
    {
	type wall;
	faces
	(
		(1 0 9 10)
		(0 8 17 9)
	);
    }

    interface1
    {
        type patch;
	faces
	(
		(1 10 15 6)
	);
    }

    interface2
    {
        type patch;
	faces
	(
		(8 17 15 6)
	);
    }
);

mergePatchPairs																
(																
    ( interface1 interface2 ) 																
);
