/*--------------------------------*- C++ -*----------------------------------*\
| =========                 |                                                 |
| \\      /  F ield         | OpenFOAM: The Open Source CFD Toolbox           |
|  \\    /   O peration     | Version:  v1906                                 |
|   \\  /    A nd           | Web:      www.OpenFOAM.com                      |
|    \\/     M anipulation  |                                                 |
\*---------------------------------------------------------------------------*/
FoamFile
{
    version     2.0;
    format      ascii;
    class       dictionary;
    location    "system";
    object      controlDict;
}
// * * * * * * * * * * * * * * * * * * * * * * * * * * * * * * * * * * * * * //

#include	"../0/constants"

application     simpleFoam;

startFrom       startTime;

startTime       0;

stopAt          endTime;

endTime         500;

deltaT          1;

writeControl    timeStep;

writeInterval   100;

purgeWrite      0;

writeFormat     ascii;

writePrecision  6;

writeCompression off;

timeFormat      general;

timePrecision   6;

runTimeModifiable true;

functions
{
    forceCoeffs
    {
        type				forceCoeffs;
        functionObjectLibs 	("libforces.so");
        writeControl		outputTime;
        outputTime			100;
        patches
        (
            naca
        );
        pName		p;
        UName   	U;
		rhoInf		1.15;
        rho     	rhoInf;
		log			true;
        CofR 		($COFR 0 0);
		liftDir		($LX $LY 0);
		dragDir 	($DX $DY 0);
		pitchAxis	(0 0 -1);
		magUInf		$U;
		lRef		$CHR;
		Aref		1.0;
    }	
}

// ************************************************************************* //
