/*--------------------------------*- C++ -*----------------------------------*\
| =========                 |                                                 |
| \\      /  F ield         | OpenFOAM: The Open Source CFD Toolbox           |
|  \\    /   O peration     | Version:  v1906                                 |
|   \\  /    A nd           | Web:      www.OpenFOAM.com                      |
|    \\/     M anipulation  |                                                 |
\*---------------------------------------------------------------------------*/
FoamFile
{
    version     2.0;
    format      ascii;
    class       volVectorField;
    object      U;
}
// * * * * * * * * * * * * * * * * * * * * * * * * * * * * * * * * * * * * * //

#include	"constants";

dimensions      [0 1 -1 0 0 0 0];

internalField   uniform ($UX $UY 0);

boundaryField
{
    inlet
    {
        type                freestream;
        freestreamValue     uniform ($UX $UY 0);
    }

    outlet
    {
        type                freestream;
        freestreamValue     uniform ($UX $UY 0);
    }

    frontAndBack
    {
	type		    empty;
    }

    naca
    {
        type                noSlip;
    }
}

// ************************************************************************* //
